	########################################################################
# Former M345 database for MAR Leederville (Carlos Descourvieres) adopted for: 
# - sulphur isotope evolution (sulphide formation suppressed by adapted log_k)
# - colloid transport (and addition of crandallite)
# - temperature transport (simulated as linear sorption process via surface complexation)
# - glauconite kinetic rate (Fernandez-Basetro 2008)
# - Fe-redox transformation as kinetic reaction
# - Jing, change sulfur isotope stuff back, and delete the barite scaling in rate expressions, 04/23/2019
# - Jing, this is the FINAL database for Yarragadee validation and predictive models
########################################################################
########################################################################

SOLUTION_MASTER_SPECIES
#
#element	species	alk	gfw_formula	element_gfw
#
H		H+	-1.0	H		1.008
H(0)		H2	0.0	H
H(1)		H+	-1.0	0.0
E		e-	0.0	0.0		0.0
O		H2O	0.0	O		16.0
O(0)		O2	0.0	O
O(-2)		H2O	0.0	0.0
Ca		Ca+2	0.0	Ca		40.08
Mg		Mg+2	0.0	Mg		24.312
Na		Na+	0.0	Na		22.9898
K		K+	0.0	K		39.102
#Fe		Fe_di+2	0.0	Fe		55.847
Fe_di		Fe_di+2	0.0	Fe_di		55.847	      #Fe2	
Fe_tri		Fe_tri+3 0.0	Fe_tri		55.847	      #Fe3
Mn		Mn+2	0.0	Mn		54.938
Mn(+2)		Mn+2	0.0	Mn
Mn(+3)		Mn+3	0.0	Mn
Al		Al+3	0.0	Al		26.9815
Ba		Ba+2	0.0	Ba		137.34
Sr		Sr+2	0.0	Sr		87.62
Si		H4SiO4	0.0	SiO2		28.0843
Cl		Cl-	0.0	Cl		35.453
C		CO3-2	2.0	HCO3		12.0111
C(+4)		CO3-2	2.0	HCO3
C(-4)		CH4	0.0	CH4
Alkalinity	CO3-2	1.0	Ca0.5(CO3)0.5	50.05
S		SO4-2	0.0 	SO4 		32.064
S(6)		SO4-2	0.0 	SO4
S(-2)		HS- 	1.0 	S
N		NO3-	0.0	N		14.0067
N(+5)		NO3-	0.0	N
N(+3)		NO2-	0.0	N
N(0)		N2	0.0	N
Amm		AmmH+	0.0	AmmH		17.0
B		H3BO3	0.0	B		10.81
P		PO4-3	2.0	P		30.9738
F		F-	0.0	F		18.9984
Li		Li+	0.0	Li		6.939
Br		Br-	0.0	Br		79.904
Zn		Zn+2	0.0	Zn		65.37
Cd		Cd+2	0.0	Cd		112.4
Pb		Pb+2	0.0	Pb		207.19
Cu		Cu+2	0.0	Cu		63.546
Cu(+2)		Cu+2	0.0	Cu
Cu(+1)		Cu+1	0.0	Cu
Ni	        Ni+2    0.0     Ni              58.69
Tmp             Tmp     0.0     Tmp             1			#Temperature Species
Tracer          Tracer  0.0     Tracer          1.0
D	        D+      0.0     1.0             1.0
A               A-      0.0     1.0             1.0
Cran_mob        Cran_mob    0.0     Cran_mob    1.0        		#Henning/Olivier Colloid Transport
Xeno            Xeno        0.0     Xeno        1.0           
Orgc_sed        Orgc_sed    0.0     Orgc_sed	1
Cran_imob       Cran_imob   0.0     Cran_imob   1.0 			#Henning/Olivier Colloid Transport
Co		Co+3		-1.0	Co	58.9332
Co(2)		Co+2		0.0	Co
Co(3)		Co+3		-1.0	Co

SOLUTION_SPECIES

H2O + 0.01e- = H2O-0.01
log_k  -9


#D+ dummy cation
	D+ = D+
	log_k		0.0

#A- dummy anion
	A- = A-
	log_k		0.0

# dummy specires to trace particle transport, Hennings Cran_mob 
Cran_mob = Cran_mob 
	log_k	0

# dummy species to trace CoC fate 
Xeno = Xeno
	log_k	0

# dummy specires to trace particle release	
Cran_imob = Cran_imob 
	log_k	0

Tmp  = Tmp 
	log_k	0.0
	-gamma 1 0   		#forces phreeqc to assign activity coeff=1 to uncharged species

Tracer = Tracer
	log_k	0.0

H+ = H+
	log_k	0.0
	-gamma	9.0	0.0

e- = e-
	log_k	0.0

H2O = H2O
	log_k	0.0

Ca+2 = Ca+2
	log_k	0.0
	-gamma	5.0	0.1650

Mg+2 = Mg+2
	log_k	0.0
	-gamma	5.5	0.20

Na+ = Na+
	log_k	0.0
	-gamma	4.0	0.075

K+ = K+
	log_k	0.0
	-gamma	3.5	0.015

Fe_di+2 = Fe_di+2
	log_k	0.0
	-gamma	6.0	0.0

Fe_tri+3 = Fe_tri+3
	log_k	0.0
	-gamma	6.0	0.0

Mn+2 = Mn+2
	log_k	0.0
	-gamma	6.0	0.0

Al+3 = Al+3
	log_k	0.0
	-gamma	9.0	0.0

Ba+2 = Ba+2
	log_k	0.0
	-gamma	5.0	0.0

Sr+2 = Sr+2
	log_k	0.0
	-gamma	5.260	0.121

H4SiO4 = H4SiO4
	log_k	0.0

Cl- = Cl-
	log_k	0.0
	-gamma	3.5	0.015

CO3-2 = CO3-2
	log_k	0.0
	-gamma	5.4	0.0

SO4-2 = SO4-2
	log_k	0.0
	-gamma	5.0 	-0.04
	-dw 	1.07e-9
        -millero 9.26 0.284 -0.003808 0.4348 -0.0099143 -8.4762e-05
        
NO3- = NO3-
	log_k	0.0
	-gamma	3.0	0.0

AmmH+ = AmmH+
	log_k	0.0
	-gamma	2.5	0.0

H3BO3 = H3BO3
	log_k	0.0

PO4-3 = PO4-3
	log_k	0.0
	-gamma	4.0	0.0

F- = F-
	log_k	0.0
	-gamma	3.5	0.0

Li+ = Li+
	log_k	0.0
	-gamma	6.0	0.0

Br- = Br-
	log_k	0.0
	-gamma	3.0	0.0

Zn+2 = Zn+2
	log_k	0.0
	-gamma	5.0	0.0

Cd+2 = Cd+2
	log_k	0.0

Pb+2 = Pb+2
	log_k	0.0

Cu+2 = Cu+2
	log_k	0.0
	-gamma	6.0	0.0

# Leederville
Ni+2 = Ni+2
	log_k 0.0

Co+3 = Co+3
	log_k 0

H2O = OH- + H+
	log_k	-14.0
	delta_h 13.362	kcal
	-analytic	-283.971	-0.05069842	13323.0	102.24447	-1119669.0
	-gamma	3.5	0.0

2 H2O = O2 + 4 H+ + 4 e-
	log_k	-86.08
	delta_h 134.79 kcal

2 H+ + 2 e- = H2
	log_k	-3.15
	delta_h -1.759

CO3-2 + H+ = HCO3-
	log_k	10.329
	delta_h -3.561	kcal
	-analytic	107.8871	0.03252849	-5151.79	-38.92561	563713.9
	-gamma	5.4	0.0

CO3-2 + 2 H+ = CO2 + H2O
	log_k	16.681
	delta_h -5.738	kcal
	-analytic	464.1965	0.09344813	-26986.16	-165.75951	2248628.9

CO3-2 + 10 H+ + 8 e- = CH4 + 3 H2O
	log_k	41.071
	delta_h -61.039 kcal

SO4-2 + H+ = HSO4-
	log_k	1.988
	delta_h 3.85	kcal
	-analytic	-56.889 0.006473	2307.9	19.8858 0.0
	-dw 	1.33e-9

HS- = S-2 + H+
	log_k	-12.918
	delta_h 12.1	kcal
	-gamma	5.0 	0.0
	-dw 	0.731e-9

SO4-2 + 9 H+ + 8 e- = HS- + 4 H2O
#	log_k	33.65
	log_k	27.65 							# M345 - prevent Sulfide formation 
	delta_h -60.140 kcal
	-gamma	3.5 	0.0
	-dw 	1.73e-9

HS- + H+ = H2S
	log_k	6.994
	delta_h -5.30	kcal
		-analytical  -11.17   0.02386  3279.0
	-dw 	2.1e-9

NO3- + 2 H+ + 2 e- = NO2- + H2O
	log_k	28.570
	delta_h -43.760 kcal
	-gamma	3.0	0.0

2 NO3- + 12 H+ + 10 e- = N2 + 6 H2O
	log_k	207.08
	delta_h -312.130	kcal

AmmH+ = Amm + H+
	log_k	-9.252
	delta_h 12.48	kcal
        -analytic    0.6322    -0.001225     -2835.76

#NO3- + 10 H+ + 8 e- = AmmH+ + 3 H2O
#	log_k	119.077
#	delta_h -187.055	kcal
#	-gamma	2.5	0.0

AmmH+ + SO4-2 = AmmHSO4-
	log_k	1.11
 
H3BO3 = H2BO3- + H+
	log_k	-9.24
	delta_h 3.224	kcal

H3BO3 + F- = BF(OH)3-
	log_k	-0.4
	delta_h 1.850	kcal

H3BO3 + 2 F- + H+ = BF2(OH)2- + H2O
	log_k	7.63
	delta_h 1.618	kcal

H3BO3 + 2 H+ + 3 F- = BF3OH- + 2 H2O
	log_k	13.67
	delta_h -1.614	kcal

H3BO3 + 3 H+ + 4 F- = BF4- + 3 H2O
	log_k	20.28
	delta_h -1.846	kcal

PO4-3 + H+ = HPO4-2
	log_k	12.346
	delta_h -3.530	kcal
	-gamma	4.0	0.0

PO4-3 + 2 H+ = H2PO4-
	log_k	19.553
	delta_h -4.520	kcal
	-gamma	4.5	0.0

H+ + F- = HF
	log_k	3.18
	delta_h 3.18	kcal
	-analytic	-2.033	0.012645	429.01

H+ + 2 F- = HF2-
	log_k	3.76
	delta_h 4.550	kcal

Ca+2 + H2O = CaOH+ + H+
	log_k	-12.78

Ca+2 + CO3-2 = CaCO3
	log_k	3.224
	delta_h 3.545	kcal
	-analytic	-1228.732	-0.299440	35512.75	485.818

Ca+2 + CO3-2 + H+ = CaHCO3+
	log_k	11.435
	delta_h -0.871	kcal
	-analytic	1317.0071	0.34546894	-39916.84	-517.70761	563713.9
	-gamma	5.4	0.0

Ca+2 + SO4-2 = CaSO4
	log_k	2.3
	delta_h 1.650	kcal
	-dw 4.71e-10

Ca+2 + HSO4- = CaHSO4+
	log_k	1.08

Ca+2 + PO4-3 = CaPO4-
	log_k	6.459
	delta_h 3.10	kcal

Ca+2 + HPO4-2 = CaHPO4
	log_k	2.739
	delta_h 3.3 kcal

Ca+2 + H2PO4- = CaH2PO4+
	log_k	1.408
	delta_h 3.4 kcal

Ca+2 + F- = CaF+
	log_k	0.94
	delta_h 4.120	kcal

Mg+2 + H2O = MgOH+ + H+
	log_k	-11.44
	delta_h 15.952 kcal

Mg+2 + CO3-2 = MgCO3
	log_k	2.98
	delta_h 2.713	kcal
	-analytic	0.9910	0.00667

Mg+2 + H+ + CO3-2 = MgHCO3+
	log_k	11.399
	delta_h -2.771	kcal
	-analytic	48.6721	0.03252849	-2614.335	-18.00263	563713.9
	
Mg+2 + SO4-2 = MgSO4
	log_k	2.37
	delta_h 4.550	kcal
	-dw 4.45e-10

Mg+2 + PO4-3 = MgPO4-
	log_k	6.589
	delta_h 3.10	kcal

Mg+2 + HPO4-2 = MgHPO4
	log_k	2.87
	delta_h 3.3 kcal

Mg+2 + H2PO4- = MgH2PO4+
	log_k	1.513
	delta_h 3.4 kcal

Mg+2 + F- = MgF+
	log_k	1.82
	delta_h 3.20	kcal

Na+ + H2O = NaOH + H+
	log_k	-14.18

Na+ + CO3-2 = NaCO3-
	log_k	1.27
	delta_h 8.910	kcal

Na+ + HCO3- = NaHCO3
	log_k	-0.25

Na+ + SO4-2 = NaSO4-
	log_k	0.7
	delta_h 1.120	kcal
	-dw 6.18e-10

Na+ + HPO4-2 = NaHPO4-
	log_k	0.29

Na+ + F- = NaF
	log_k	-0.24

K+ + H2O = KOH + H+
	log_k	-14.46

K+ + SO4-2 = KSO4-
	log_k	0.85
	delta_h 2.250	kcal
	-analytical 	 3.106	0.0   -673.6
	-dw 7.46e-10

K+ + HPO4-2 = KHPO4-
	log_k	0.29

Fe_di+2 + H2O = Fe_diOH+ + H+
	log_k	-9.5
	delta_h 13.20	kcal

Fe_di+2 + Cl- = Fe_diCl+
	log_k	0.14

Fe_di+2 + CO3-2 = Fe_diCO3
	log_k	4.38

Fe_di+2 + HCO3- = Fe_diHCO3+
	log_k	2.0

Fe_di+2 + SO4-2 = Fe_diSO4
	log_k	2.25
	delta_h 3.230	kcal
 
Fe_di+2 + HSO4- = Fe_diHSO4+
	log_k	1.08
 
Fe_di+2 + 2HS- = Fe_di(HS)2
	log_k	8.95

Fe_di+2 + 3HS- = Fe_di(HS)3-
	log_k	10.987

Fe_di+2 + HPO4-2 = Fe_diHPO4
	log_k	3.6

Fe_di+2 + H2PO4- = Fe_diH2PO4+
	log_k	2.7

Fe_di+2 + F- = Fe_diF+
	log_k	1.0

#Fe+2 = Fe+3 + e-
#	log_k	-13.02
#	delta_h 9.680	kcal
#	-gamma	9.0	0.0

Fe_tri+3 + H2O = Fe_triOH+2 + H+
	log_k	-2.19
	delta_h 10.4	kcal

Fe_tri+3 + 2 H2O = Fe_tri(OH)2+ + 2 H+
	log_k	-5.67
	delta_h 17.1	kcal

Fe_tri+3 + 3 H2O = Fe_tri(OH)3 + 3 H+
	log_k	-12.56
	delta_h 24.8	kcal

Fe_tri+3 + 4 H2O = Fe_tri(OH)4- + 4 H+
	log_k	-21.6
	delta_h 31.9	kcal

2 Fe_tri+3 + 2 H2O = Fe_tri2(OH)2+4 + 2 H+
	log_k	-2.95
	delta_h 13.5	kcal

3 Fe_tri+3 + 4 H2O = Fe_tri3(OH)4+5 + 4 H+
	log_k	-6.3
	delta_h 14.3	kcal

Fe_tri+3 + Cl- = Fe_triCl+2
	log_k	1.48
	delta_h 5.6	kcal

Fe_tri+3 + 2 Cl- = Fe_triCl2+
	log_k	2.13

Fe_tri+3 + 3 Cl- = Fe_triCl3
	log_k	1.13

Fe_tri+3 + SO4-2 = Fe_triSO4+
	log_k	4.04
	delta_h 3.91	kcal
 
Fe_tri+3 + HSO4- = Fe_triHSO4+2
	log_k	2.48
 
Fe_tri+3 + 2 SO4-2 = Fe_tri(SO4)2-
	log_k	5.38
	delta_h 4.60	kcal
 
Fe_tri+3 + HPO4-2 = Fe_triHPO4+
	log_k	5.43
	delta_h 5.76	kcal

Fe_tri+3 + H2PO4- = Fe_triH2PO4+2
	log_k	5.43

Fe_tri+3 + F- = Fe_triF+2
	log_k	6.2
	delta_h 2.7	kcal

Fe_tri+3 + 2 F- = Fe_triF2+
	log_k	10.8
	delta_h 4.8	kcal

Fe_tri+3 + 3 F- = Fe_triF3
	log_k	14.0
	delta_h 5.4	kcal

Mn+2 + H2O = MnOH+ + H+
	log_k	-10.59
	delta_h 14.40	kcal

Mn+2 + Cl- = MnCl+
	log_k	0.61

Mn+2 + 2 Cl- = MnCl2
	log_k	0.25

Mn+2 + 3 Cl- = MnCl3-
	log_k	-0.31

Mn+2 + CO3-2 = MnCO3
	log_k	4.9

Mn+2 + HCO3- = MnHCO3+
	log_k	1.95

Mn+2 + SO4-2 = MnSO4
	log_k	2.25
	delta_h 3.370	kcal
 
Mn+2 + 2 NO3- = Mn(NO3)2
	log_k	0.6
	delta_h -0.396	kcal

Mn+2 + F- = MnF+
	log_k	0.84

Mn+2 = Mn+3 + e-
	log_k	-25.51
	delta_h 25.80	kcal

Al+3 + H2O = AlOH+2 + H+
	log_k	-5.0
	delta_h 11.49	kcal
	-analytic	-38.253	0.0	-656.27	14.327

Al+3 + 2 H2O = Al(OH)2+ + 2 H+
	log_k	-10.1
	delta_h 26.90	kcal
	-analytic	88.50	0.0	-9391.6	-27.121

Al+3 + 3 H2O = Al(OH)3 + 3 H+
	log_k	-16.9
	delta_h 39.89	kcal
	-analytic	226.374	0.0	-18247.8	-73.597

Al+3 + 4 H2O = Al(OH)4- + 4 H+
	log_k	-22.7
	delta_h 42.30	kcal
	-analytic	51.578	0.0	-11168.9	-14.865

Al+3 + SO4-2 = AlSO4+
	log_k	3.5
	delta_h 2.29 kcal
 
Al+3 + 2SO4-2 = Al(SO4)2-
	log_k	5.0
	delta_h 3.11 kcal
 
Al+3 + HSO4- = AlHSO4+2
	log_k	0.46
 
Al+3 + F- = AlF+2
	log_k	7.0
	delta_h 1.060	kcal

Al+3 + 2 F- = AlF2+
	log_k	12.7
	delta_h 1.980	kcal

Al+3 + 3 F- = AlF3
	log_k	16.8
	delta_h 2.160	kcal

Al+3 + 4 F- = AlF4-
	log_k	19.4
	delta_h 2.20	kcal

Al+3 + 5 F- = AlF5-2
	log_k	20.6
	delta_h 1.840	kcal

Al+3 + 6 F- = AlF6-3
	log_k	20.6
	delta_h -1.670	kcal

H4SiO4 = H3SiO4- + H+
	log_k	-9.83
	delta_h 6.12	kcal
	-analytic	-302.3724	-0.050698	15669.69	108.18466	-1119669.0

H4SiO4 = H2SiO4-2 + 2 H+
	log_k	-23.0
	delta_h 17.6	kcal
	-analytic	-294.0184	-0.072650	11204.49	108.18466	-1119669.0

H4SiO4 + 4 H+ + 6 F- = SiF6-2 + 4 H2O
	log_k	30.18
	delta_h -16.260	kcal

Ba+2 + H2O = BaOH+ + H+
	log_k	-13.47

Ba+2 + CO3-2 = BaCO3
	log_k	2.71
	delta_h 3.55	kcal
	-analytic	0.113	0.008721

Ba+2 + HCO3- = BaHCO3+
	log_k	0.982
	delta_h 5.56 kcal
	-analytical	-3.0938	0.013669	0.0	0.0	0.0

Ba+2 + SO4-2 = BaSO4
	log_k	2.7
 
Sr+2 + H2O = SrOH+ + H+
	log_k	-13.29
	-gamma	5.0	0.0

Sr+2 + CO3-2 + H+ = SrHCO3+
	log_k	11.509
	delta_h 2.489	kcal
	-analytic	104.6391	0.04739549	-5151.79	-38.92561	563713.9
	-gamma	5.4	0.0

Sr+2 + CO3-2 = SrCO3
	log_k	2.81
	delta_h 5.22	kcal
	-analytic	-1.019	0.012826

Sr+2 + SO4-2 = SrSO4
	log_k	2.29
	delta_h 2.08	kcal
 
Li+ + H2O = LiOH + H+
	log_k	-13.64

Li+ + SO4-2 = LiSO4-
	log_k	0.64
 
Cu+2 + e- = Cu+
	log_k	2.72
	delta_h 1.65	kcal
	-gamma	2.5	0.0

Cu+2 + H2O = CuOH+ + H+
	log_k	-8.0
	-gamma	4.0	0.0

Cu+2 + 2 H2O = Cu(OH)2 + 2 H+
	log_k	-13.68

Cu+2 + 3 H2O = Cu(OH)3- + 3 H+
	log_k	-26.9

Cu+2 + 4 H2O = Cu(OH)4-2 + 4 H+
	log_k	-39.6

Cu+2 + SO4-2 = CuSO4
	log_k	2.31
	delta_h 1.220	kcal
 
Zn+2 + H2O = ZnOH+ + H+
	log_k	-8.96
	delta_h 13.4 kcal

Zn+2 + 2 H2O = Zn(OH)2 + 2 H+
	log_k	-16.9

Zn+2 + 3 H2O = Zn(OH)3- + 3 H+
	log_k	-28.4

Zn+2 + 4 H2O = Zn(OH)4-2 + 4 H+
	log_k	-41.2

Zn+2 + Cl- = ZnCl+
	log_k	0.43
	delta_h 7.79 kcal

Zn+2 + 2 Cl- = ZnCl2
	log_k	0.45
	delta_h 8.5 kcal

Zn+2 + 3Cl- = ZnCl3-
	log_k	0.5
	delta_h 9.56 kcal

Zn+2 + 4Cl- = ZnCl4-2
	log_k	0.2
	delta_h 10.96 kcal

Zn+2 + CO3-2 = ZnCO3
	log_k	5.3

Zn+2 + 2CO3-2 = Zn(CO3)2-2
	log_k	9.63

Zn+2 + HCO3- = ZnHCO3+
	log_k	2.1

Zn+2 + SO4-2 = ZnSO4
	log_k	2.37
	delta_h 1.36 kcal
 
Zn+2 + 2SO4-2 = Zn(SO4)2-2
	log_k	3.28
 

#---------------------------
# Leederville
#---------------------------

Orgc_sed = Orgc_sed
        log_k	0.0
	-gamma 1 0   		#forces phreeqc to assign activity coeff=1 to uncharged species
# during degradation we release CH2O(Amm)0.1H0.3(PO4)0.04

Co+3 + e- = Co+2
	log_k	32.4
	delta_h	0	kJ
	-gamma	0	0

#Added by ClaudioVS 2021->

#Co+2 = Co+2
#	log_k 0
	

Ni+2 + H2O = NiOH+ + H+
	log_k	-9.897
	delta_h	51.81	kJ
	-gamma	0	0
		#                  Id:	5403300
		#        log K source:	NIST46.3                      
		#      Delta H source:	NIST46.3                      
		#T and ionic strength:	 0.00 25.0

Ni+2 + 2H2O = Ni(OH)2 + 2H+
	log_k	-18.994
	delta_h	0	kJ
	-gamma	0	0
		#                  Id:	5403301
		#        log K source:	NIST46.3                      
		#      Delta H source:	MTQ3.11                       
		#T and ionic strength:	 0.00 25.0

Ni+2 + 3H2O = Ni(OH)3- + 3H+
	log_k	-29.991
	delta_h	0	kJ
	-gamma	0	0
		#                  Id:	5403302
		#        log K source:	NIST46.3                      
		#      Delta H source:	MTQ3.11                       
		#T and ionic strength:	 0.00 25.0

Ni+2 + Cl- = NiCl+
	log_k	0.408
	delta_h	2	kJ
	-gamma	0	0
		#                  Id:	5401800
		#        log K source:	NIST46.3                      
		#      Delta H source:	NIST46.3                      
		#T and ionic strength:	 1.00 25.0

Ni+2 + 2Cl- = NiCl2
	log_k	-1.89
	delta_h	0	kJ
	-gamma	0	0
		#                  Id:	5401801
		#        log K source:	SCD3.02 (1989 IPa)            
		#      Delta H source:	MTQ3.11                       
		#T and ionic strength:	 0.00 25.0

Ni+2 + Br- = NiBr+
	log_k	0.5
	delta_h	0	kJ
	-gamma	0	0
		#                  Id:	5401300
		#        log K source:	MTQ3.11                       
		#      Delta H source:	MTQ3.11                       
		#T and ionic strength:	
Ni+2 + SO4-2 = NiSO4
	log_k	2.3
	delta_h	5.8	kJ
	-gamma	0	0
		#                  Id:	5407320
		#        log K source:	NIST46.3                      
		#      Delta H source:	NIST46.3                      
		#T and ionic strength:	 0.00 25.0

Ni+2 + 2SO4-2 = Ni(SO4)2-2
	log_k	0.82
	delta_h	0	kJ
	-gamma	0	0
		#                  Id:	5407321
		#        log K source:	SCD3.02 (1978 BLa)            
		#      Delta H source:	MTQ3.11                       
		#T and ionic strength:	 0.00 25.0

Ni+2 + AmmH+ = NiAmm+2 + H+
	log_k	-6.514
	delta_h	-67	kJ
	-gamma	0	0
		#                  Id:	5404901
		#        log K source:	NIST46.4                      
		#      Delta H source:	NIST46.4                      
		#T and ionic strength:	 0.10 25.0

Ni+2 + 2AmmH+ = Ni(Amm)2+2 + 2H+
	log_k	-13.598
	delta_h	-111.6	kJ
	-gamma	0	0
		#                  Id:	5404902
		#        log K source:	NIST46.4                      
		#      Delta H source:	NIST46.4                      
		#T and ionic strength:	 0.10 25.0

Ni+2 + AmmH+ = NiAmm+2 + H+
	log_k	-6.514
	delta_h	-67	kJ
	-gamma	0	0
		#                  Id:	5404901
		#        log K source:	NIST46.4                      
		#      Delta H source:	NIST46.4                      
		#T and ionic strength:	 0.10 25.0

Ni+2 + 2AmmH+ = Ni(Amm)2+2 + 2H+
	log_k	-13.598
	delta_h	-111.6	kJ
	-gamma	0	0
		#                  Id:	5404902
		#        log K source:	NIST46.4                      
		#      Delta H source:	NIST46.4                      
		#T and ionic strength:	 0.10 25.0

Ni+2 + NO3- = NiNO3+
	log_k	0.4
	delta_h	0	kJ
	-gamma	0	0
		#                  Id:	5404921
		#        log K source:	NIST46.4                      
		#      Delta H source:	MTQ3.11                       
		#T and ionic strength:	 0.00 25.0

Ni+2 + CO3-2 = NiCO3
	log_k	4.5718
	delta_h	0	kJ
	-gamma	0	0
		#                  Id:	5401401
		#        log K source:	NIST46.3                      
		#      Delta H source:	MTQ3.11                       
		#T and ionic strength:	 0.70 25.0

Ni+2 + H+ + CO3-2 = NiHCO3+
	log_k	12.4199
	delta_h	0	kJ
	-gamma	0	0
		#                  Id:	5401400
		#        log K source:	NIST46.3                      
		#      Delta H source:	MTQ3.11                       
		#T and ionic strength:	 0.70 25.0

#<-Added by ClaudioVS 2021

Co+2 + H2O = CoOH+ + H+
	log_k	-9.697
	delta_h	0	kJ
	-gamma	0	0
		#                  Id:	2003300
		#        log K source:	NIST46.4                      
		#      Delta H source:	MTQ3.11                       
		#T and ionic strength:	 0.00 25.0
Co+2 + 2H2O = Co(OH)2 + 2H+
	log_k	-18.794
	delta_h	0	kJ
	-gamma	0	0
		#                  Id:	2003301
		#        log K source:	NIST46.4                      
		#      Delta H source:	MTQ3.11                       
		#T and ionic strength:	 0.00 25.0
Co+2 + 3H2O = Co(OH)3- + 3H+
	log_k	-31.491
	delta_h	0	kJ
	-gamma	0	0
		#                  Id:	2003302
		#        log K source:	NIST46.4                      
		#      Delta H source:	MTQ3.11                       
		#T and ionic strength:	 0.00 25.0
Co+2 + 4H2O = Co(OH)4-2 + 4H+
	log_k	-46.288
	delta_h	0	kJ
	-gamma	0	0
		#                  Id:	2003303
		#        log K source:	NIST46.4                      
		#      Delta H source:	MTQ3.11                       
		#T and ionic strength:	 0.00 25.0
2Co+2 + H2O = Co2OH+3 + H+
	log_k	-10.997
	delta_h	0	kJ
	-gamma	0	0
		#                  Id:	2003304
		#        log K source:	NIST46.4                      
		#      Delta H source:	MTQ3.11                       
		#T and ionic strength:	 0.00 25.0
4Co+2 + 4H2O = Co4(OH)4+4 + 4H+
	log_k	-30.488
	delta_h	0	kJ
	-gamma	0	0
		#                  Id:	2003306
		#        log K source:	NIST46.4                      
		#      Delta H source:	MTQ3.11                       
		#T and ionic strength:	 0.00 25.0
Co+2 + 2H2O = CoOOH- + 3H+
	log_k	-32.0915
	delta_h	260.454	kJ
	-gamma	0	0
		#                  Id:	2003305
		#        log K source:	NIST2.1.1                     
		#      Delta H source:	MTQ3.11                       
		#T and ionic strength:	          
Co+3 + H2O = CoOH+2 + H+
	log_k	-1.291
	delta_h	0	kJ
	-gamma	0	0
		#                  Id:	2013300
		#        log K source:	NIST46.4                      
		#      Delta H source:	MTQ3.11                       
		#T and ionic strength:	 3.00 25.0
Co+2 + F- = CoF+
	log_k	1.5
	delta_h	9.2	kJ
	-gamma	0	0
		#                  Id:	2002700
		#        log K source:	NIST46.4                      
		#      Delta H source:	NIST46.4                      
		#T and ionic strength:	 0.00 25.0
Co+2 + Cl- = CoCl+
	log_k	0.539
	delta_h	2	kJ
	-gamma	0	0
		#                  Id:	2001800
		#        log K source:	NIST46.4                      
		#      Delta H source:	NIST46.4                      
		#T and ionic strength:	 0.50 25.0
Co+3 + Cl- = CoCl+2
	log_k	2.3085
	delta_h	16	kJ
	-gamma	0	0
		#                  Id:	2011800
		#        log K source:	NIST46.4                      
		#      Delta H source:	NIST46.4                      
		#T and ionic strength:	 0.50 25.0
Co+2 + SO4-2 = CoSO4
	log_k	2.3
	delta_h	6.2	kJ
	-gamma	0	0
		#                  Id:	2007320
		#        log K source:	NIST46.4                      
		#      Delta H source:	NIST46.4                      
		#T and ionic strength:	 0.00 25.0
Co+2 + NO3- = CoNO3+
	log_k	0.2
	delta_h	0	kJ
	-gamma	0	0
		#                  Id:	2004921
		#        log K source:	NIST46.4                      
		#      Delta H source:	MTQ3.11                       
		#T and ionic strength:	 0.00 25.0
Co+2 + 2NO3- = Co(NO3)2
	log_k	0.5085
	delta_h	0	kJ
	-gamma	0	0
		#                  Id:	2004922
		#        log K source:	NIST46.4                      
		#      Delta H source:	MTQ3.11                       
		#T and ionic strength:	 0.50 25.0

PHASES

Calcite
	CaCO3 = CO3-2 + Ca+2
	log_k	-8.48
	delta_h -2.297 kcal
	-analytic	-171.9065	-0.077993	2839.319	71.595

Aragonite
	CaCO3 = CO3-2 + Ca+2
	log_k	-8.336
	delta_h -2.589 kcal
	-analytic	-171.9773	-0.077993	2903.293	71.595

Dolomite
	CaMg(CO3)2 = Ca+2 + Mg+2 + 2 CO3-2
	log_k	-17.09
	delta_h  -9.436 kcal

Siderite
	Fe_diCO3 = Fe_di+2 + CO3-2
	#Fe_di0.99Mn0.01CO3 = 0.99Fe_di+2 + 0.01Mn+2 + CO3-2
#Siderite #MixedCarb 								# Adapted  March 2014
	#Fe_di0.6Ca0.2Mg0.2CO3 = 0.6Fe_di+2 + 0.2Ca+2 + 0.2Mg+2 + CO3-2
	log_k	-10.89
	delta_h  -2.480 kcal

Rhodochrosite
	MnCO3 = Mn+2 + CO3-2
	log_k	-11.13
	delta_h  -1.430 kcal

Strontianite                                  
	SrCO3 = Sr+2 + CO3-2
	log_k	-9.271
	delta_h -0.400 kcal
	-analytic	155.0305	0.0	-7239.594	-56.58638

Witherite
	BaCO3 = Ba+2 + CO3-2
	log_k	-8.562
	delta_h  0.703 kcal
	-analytic	607.642	0.121098	-20011.25	-236.4948

Gypsum
	CaSO4:2H2O = Ca+2 + SO4-2 + 2 H2O
	log_k	-4.58
	delta_h -0.109 kcal
	-analytic	68.2401 0.0 	-3221.51	-25.0627
 
Anhydrite
	CaSO4 = Ca+2 + SO4-2
	log_k	-4.36
	delta_h -1.710 kcal
	-analytic	197.52	0.0 	-8669.8 -69.835
 
Celestite
	SrSO4 = Sr+2 + SO4-2
	log_k	-6.63
	delta_h -1.037 kcal
	-analytic	-14805.9622 	-2.4660924	756968.533	5436.3588	-40553604.0
 
Barite
	BaSO4 = Ba+2 + SO4-2
	log_k	-9.97
	delta_h  6.35 kcal
	-analytic	136.035 0.0 	-7680.41	-48.595
 
Hydroxyapatite
	Ca5(PO4)3OH + 4 H+ = H2O + 3 HPO4-2 + 5 Ca+2
	log_k	 -3.421
	delta_h -36.155 kcal

Fluorite
	CaF2 = Ca+2 + 2 F-
	log_k	-10.6
	delta_h   4.69 kcal
	-analytic	66.348	0.0	-4298.2	-25.271

SiO2(a)
	SiO2 + 2 H2O = H4SiO4
	log_k	-2.71  # original log_k
	delta_h  3.340 kcal
	-analytic	-0.26	0.0	-731.0
		
Chalcedony
	SiO2 + 2 H2O = H4SiO4
	log_k	-3.55
	delta_h  4.720 kcal
	-analytic	-0.09	0.0	-1032.0

Quartz
	SiO2 + 2 H2O = H4SiO4
	log_k	-3.98
	delta_h  5.990 kcal
#	-analytic	0.41	0.0	-1309.0
# Better for St.Paul:
	-analytic	1.8810  -0.00203 -1560.0

Gibbsite
# Appelo & Postma: log_k 8.11 crystalline gibbsite; log_k 9.0 microcrystalline gibbsite; 
# Origin of log_k 7.4 unknown, but used previously in DB. 
	Al(OH)3 + 3 H+ = Al+3 + 3 H2O
	log_k	  8.11 #### 7.4
	delta_h -22.800 kcal

Al(OH)3(a)
# Appelo & Postma: log_k 10.8 for amorphous aluminiumhydroxide
	Al(OH)3 + 3 H+ = Al+3 + 3 H2O
	log_k	 10.8 # orignal 
	delta_h -26.500 kcal

Kaolinite
	Al2Si2O5(OH)4 + 6 H+ = H2O + 2 H4SiO4 + 2 Al+3
	log_k	  7.435
	delta_h -35.300 kcal

Albite
	NaAlSi3O8 + 8 H2O = Na+ + Al(OH)4- + 3 H4SiO4
	log_k	-18.002 #original
	#log_k	-19.002 #try to fit BG
	delta_h 25.896 kcal

Anorthite
	CaAl2Si2O8 + 8 H2O = Ca+2 + 2 Al(OH)4- + 2 H4SiO4
	log_k	-19.714
	delta_h 11.580 kcal

K-feldspar
	KAlSi3O8 + 8 H2O = K+ + Al(OH)4- + 3 H4SiO4
	log_k	-20.573
	delta_h 30.820	kcal

K-mica
	KAl3Si3O10(OH)2 + 10 H+ = K+ + 3 Al+3 + 3 H4SiO4
	log_k	12.703
	delta_h -59.376 kcal

Chlorite(14A)
	Mg5Al2Si3O10(OH)8 + 16H+ = 5Mg+2 + 2Al+3 + 3H4SiO4 + 6H2O
	log_k	68.38 #original
	#log_k	58.38 #adapted
	delta_h -151.494 kcal

Ca-Montmorillonite
	Ca0.165Al2.33Si3.67O10(OH)2 + 12 H2O = 0.165Ca+2 + 2.33 Al(OH)4- + 3.67 H4SiO4 + 2 H+
	log_k	-45.027
	delta_h 58.373	kcal

Talc
	Mg3Si4O10(OH)2 + 4 H2O + 6 H+ = 3 Mg+2 + 4 H4SiO4
	log_k	21.399
	delta_h -46.352 kcal

Illite
	K0.6Mg0.25Al2.3Si3.5O10(OH)2 + 11.2H2O = 0.6K+ + 0.25Mg+2 + 2.3Al(OH)4- + 3.5H4SiO4 + 1.2H+
	log_k	-40.267
	delta_h 54.684 kcal

Chrysotile
	Mg3Si2O5(OH)4 + 6 H+ = H2O + 2 H4SiO4 + 3 Mg+2
	log_k	32.2
	delta_h -46.800 kcal
	-analytic	13.248	0.0	10217.1	-6.1894

Sepiolite
	Mg2Si3O7.5OH:3H2O + 4 H+ + 0.5H2O = 2 Mg+2 + 3 H4SiO4
	log_k	15.760
	delta_h -10.700 kcal

Sepiolite(d)
	Mg2Si3O7.5OH:3H2O + 4 H+ + 0.5H2O = 2 Mg+2 + 3 H4SiO4
	log_k	18.66

Hematite
	Fe_tri2O3 + 6 H+ = 2 Fe_tri+3 + 3 H2O
	log_k	-4.008
	delta_h -30.845 kcal

Goethite
	Fe_triOOH + 3 H+ = Fe_tri+3 + 2 H2O
	log_k	-1.0
        delta_h         -14.48 kcal

Fe(OH)3(a)
	Fe_tri(OH)3 + 3 H+ = Fe_tri+3 + 3 H2O
	log_k	4.891 #original

Pyrite
Fe_diS2 + 2 H+ + 2 e- = Fe_di+2 + 2 HS-
# jing Test Fe_di0.996Mn0.001Co0.001Zn0.001Ni0.001S2 + 2 H+ + 2 e- = 0.996Fe_di+2 + 0.001Mn+2 + 0.001Co+2 + 0.001Zn+2 + 0.001Ni+2 + 2 HS-
# Descourvieres et al 2010, ES&T:
# Ni 5 ?10-4 9.1 ?10-4
# Cu 5 ?10-4 7.0 ?10-4
# Mn 6 ?10-3 6.9 ?10-3
# Pb 1 ?10-4 5.7 ?10-4
# Cd 4 ?10-5 2.0 ?10-5
# Zn 1 ?10-4 7.2 ?10-3
# Co 1 ?10-4 3.5 ?10-4
# Fe_di0.990973956900000008119Mn0.002357684499999999819Co0.001463240399999999903Zn0.002333323300000000097Ni0.002871794899999999869S2 + 2 H+ + 2 e- = 0.990973956900000008119Fe_di+2 + 0.002357684499999999819Mn+2 + 0.001463240399999999903Co+2 + 0.002333323300000000097Zn+2 + 0.002871794899999999869Ni+2 + 2 HS-
	log_k	-18.479
	delta_h 11.300 kcal
	
FeS(ppt)
	Fe_diS + H+ = Fe_di+2 + HS-
	log_k	-3.915
 
Mackinawite
	Fe_diS + H+ = Fe_di+2 + HS-
	log_k	-4.648
 
Sulfur
	S + 2H+ + 2e- = H2S
	log_k	4.882
	delta_h -9.5 

Vivianite
	Fe_di3(PO4)2:8H2O = 3 Fe_di+2 + 2 PO4-3 + 8 H2O
	log_k	-36.0

Pyrolusite								# H2O added for surface calc's
	MnO2:H2O + 4 H+ + 2 e- = Mn+2 + 3 H2O
	log_k	41.38
	delta_h -65.110 kcal

Hausmannite
	Mn3O4 + 8 H+ + 2 e- = 3 Mn+2 + 4 H2O
	log_k	61.03
	delta_h -100.640 kcal

Manganite
	MnOOH + 3 H+ + e- = Mn+2 + 2 H2O
	log_k	25.34

Pyrochroite
	Mn(OH)2 + 2 H+ = Mn+2 + 2 H2O
	log_k	15.2
	
Pyrochroite1
	Mn(OH)3 + 3 H+ = Mn+3 + 3 H2O
	log_k	15.2

Halite
        NaCl = Na+ + Cl- 
        log_k          1.582
        delta_h 0.918 kcal

CO2(g)
	CO2 = CO2
	log_k	-1.468
	delta_h -4.776 kcal
	-analytic	108.3865	0.01985076	-6919.53	-40.45154	669365.0

H2O(g)
	H2O = H2O
	log_k  1.506; delta_h -44.03 kJ
	
# Gases from LLNL...	
O2(g)
	O2 = O2
        log_k   -2.8983
        -analytic -7.5001 7.8981e-003 0.0 0.0 2.0027e+005

H2(g)
        H2 + 0.5 O2 = H2O     
        log_k 43.0016
        -analytic -1.1609e+001 -3.7580e-003 1.5068e+004 2.4198e+000 -7.0997e+004

N2(g)
	N2 = N2
	log_k 		-3.1864 
        -analytic -58.453 1.81800E-03  3199  17.909 -27460
     
H2S(g)
	H2S = H2S
	log_k	   -0.997
	delta_h -4.570  kcal
      
CH4(g)
	CH4 = CH4
        log_k           -2.8502
        -analytic -2.4027e+001 4.7146e-003 3.7227e+002 6.4264e+000 2.3362e+005

Amm(g)
	Amm = Amm
        log_k           1.7966
        -analytic -1.8758e+001 3.3670e-004 2.5113e+003 4.8619e+000 3.9192e+001

Melanterite
	Fe_diSO4:7H2O = 7 H2O + Fe_di+2 + SO4-2
	log_k	-2.209
	delta_h 4.910	kcal
	-analytic	1.447	-0.004153	0.0 	0.0 	-214949.0
 
Alunite
	KAl3(SO4)2(OH)6 + 6 H+ = K+ + 3 Al+3 + 2 SO4-2 + 6H2O
	log_k	-1.4
	delta_h -50.250 kcal
 
Jarosite-K
	KFe_tri3(SO4)2(OH)6 + 6 H+ = 3 Fe_tri+3 + 6 H2O + K+ + 2 SO4-2
	log_k	-9.21
	delta_h -31.280 kcal
	
Zn(OH)2(e)
	Zn(OH)2 + 2 H+ = Zn+2 + 2 H2O
	log_k	11.5

Smithsonite
	ZnCO3 = Zn+2 + CO3-2
	log_k	-10.0
	delta_h -4.36	kcal

Sphalerite
	ZnS + H+ = Zn+2 + HS-
	log_k	-11.618
	delta_h 8.250	kcal

Willemite	289
	Zn2SiO4 + 4H+ = 2Zn+2 + H4SiO4
	log_k	15.33
	delta_h -33.37	kcal


#-----------------------------------------------------
# Leederville
#-----------------------------------------------------

Ankerite
		#CaFe_di0.6Mg0.4(CO3)2 + 2H+ = Ca+2 + 0.6Fe_di+2 + 0.4Mg+2 + 2 HCO3-
		#CaFe_di0.01Mg0.89Mn0.1(CO3)2 = Ca+2 + 0.01Fe_di+2 + 0.89Mg+2 + 0.1Mn+2 + 2 CO3-2
		#CaFe_di0.1Mg0.9(CO3)2 = Ca+2 + 0.1Fe_di+2 + 0.9Mg+2 +  2 CO3-2
	    #CaMg(CO3)2 = Ca+2 + Mg+2 + 2 CO3-2
		#Ca0.9Mg0.1(CO3)2 = 0.9Ca+2 + 0.1Mg+2 + 2 CO3-2
		#CaCO3 = Ca+2 + CO3-2
		#Ca1.5Fe_di0.5(CO3)2 = 0.5Fe_di+2 + 1.5Ca+2 + 2 CO3-2
	CaFe_di0.6Mg0.4(CO3)2 = Ca+2 + 0.6Fe_di+2 + 0.4Mg+2 + 2 CO3-2
        log_k   -17.40
        #delta_h  -9.436 kcal
 
Covellite                               				
        CuS + H+ = Cu+2 + HS-
        log_k   -23.038
        delta_h 24.01   kcal
 
MnS(Green)                            					
        MnS + H+ = Mn+2 + HS-
        log_k   3.8
        delta_h -5.79   kcal        
    
Crandallite 								
#Identified as colloid, thermodynamic data from Brgm database (www)
        CaAl3(PO4)2(OH)5:H2O + 9H+ = Ca+2 + 3Al+3 + 2H2PO4- + 6H2O
        log_k  21.045            
									#Temperature range (K) : 298
									#References DGf or LogK 79vie/tar ; DHf n/a ; S?n/a ; Cp n/a   

Glauconite 								
#After Pham et al. (2011), Int.J. Greeenhouse Gas Control 5, #Low temperature glauconite 
#Ca0.02K0.85Fe_tri1.03Mg1.01Fe_di0.05Al0.32Si3.735O10(OH)2 + 7.06H+ + 7.47H2O = 0.02Ca+2 + 0.85K+ + 1.03Fe_tri+3 + 1.01Mg+2 + 0.05Fe_di+2 + 0.32Al+3 + 3.735H4SiO4 + 4.53H2O

#Ca0.07K0.85Fe_tri1.03Mg1.01Fe_di0.05Al0.32Si3.71O10(OH)2 + 7.16H+ + 7.37H2O = 0.07Ca+2 + 0.85K+ + 1.03Fe_tri+3 + 1.01Mg+2 + 0.05Fe_di+2 + 0.32Al+3 + 3.71H4SiO4 + 4.53H2O
#Ca0.22K0.45Fe_tri1.03Mg1.01Fe_di0.05Al0.32Si3.735O10(OH)2 + 7.06H+ + 7.47H2O = 0.22Ca+2 + 0.45K+ + 1.03Fe_tri+3 + 1.01Mg+2 + 0.05Fe_di+2 + 0.32Al+3 + 3.735H4SiO4 + 4.53H2O
## Fanning et al (1990) observed higher Fe2:Fe3 ratios in reducing conditions(cb with Si)
#Ca0.02K0.85Fe_tri0.83Mg1.01Fe_di0.25Al0.32Si3.785O10(OH)2 + 6.86H+ + 7.67H2O = 0.02Ca+2 + 0.85K+ + 0.83Fe_tri+3 + 1.01Mg+2 + 0.25Fe_di+2 + 0.32Al+3 + 3.785H4SiO4 + 4.53H2O
#      log_k  7.51#8.033     #Pham et al. 2011 	-7.53#7.51 #10.37 #
# K1.5Mg0.5Fe_di3AlSi7.5O20(OH)4 + 7.5H+ + 15H2O = 0.5Mg+2 + 1.5K+ + 7.5H4SiO4 + 3Fe_di+2 + 3.75H2O + Al(OH)4- + 0.625O2	#glauconite 	SiO2 + 2 H2O = H4SiO4
#	-log_k	-50.3067
#	-analytic	-5408.0421	-0.64629526	338701.38	1897.817	-25038590

#Illite
#	K0.6Mg0.25Al2.3Si3.5O10(OH)2 + 11.2H2O = 0.6K+ + 0.25Mg+2 + 2.3Al(OH)4- + 3.5H4SiO4 + 1.2H+
#	log_k	-40.267
#	delta_h 54.684 kcal

#Zhang and Tutolo, 2021. Geoch er Cosmo at. # ideal glauconite
#K0.75Fe_tri1.25Mg0.25Fe_di0.25Al0.5Si3.75O10(OH)2 + 7H+ + 7.5H2O = 0.75K+ + 1.25Fe_tri+3 + 0.25Mg+2 + 0.25Fe_di+2 + 0.5Al+3 + 3.75H4SiO4 + 4.5H2O
#	log_k	-1.86#1.25#2.0699
#	delta_h -1231.15 kcal

#Blanc 2012
(K0.75Mg0.25Fe_di0.25Fe_tri1.250Al0.25)(Al0.25Si3.75)O10(OH)2 + 7.000H+ + 3.000H2O = 0.500Al+3 + 1.250Fe_tri+3 + 0.750K+ + 0.250Mg+2 + 3.750H4SiO4 + 0.250Fe_di+2
     log_k     1.873     