TITLE Test Pyrite
SOLUTION 1-150
        pH      7.0
        temp    25.0  
	  pe      4.0    
	  O(0)    1.0  
EQUILIBRIUM_PHASES 1-150
        Pyrite          0.0     1.0
END